*Heading
** Job name: 2D_UMAT_original Model name: Model-1
** Generated by: Abaqus/CAE 2018
*Preprint, echo=NO, model=NO, history=NO, contact=NO
**
** PARTS
**
*Part, name=Part-1
*Node
      1,          15.,          15.
      2,          14.,          15.
      3,          13.,          15.
      4,          12.,          15.
      5,          11.,          15.
      6,          10.,          15.
      7,           9.,          15.
      8,           8.,          15.
      9,           7.,          15.
     10,           6.,          15.
     11,           5.,          15.
     12,           4.,          15.
     13,           3.,          15.
     14,           2.,          15.
     15,           1.,          15.
     16,           0.,          15.
     17,          -1.,          15.
     18,          -2.,          15.
     19,          -3.,          15.
     20,          -4.,          15.
** ... 941 like lines cut
*Element, type=CPS4R
  1,   1,   2,  33,  32
  2,   2,   3,  34,  33
  3,   3,   4,  35,  34
  4,   4,   5,  36,  35
  5,   5,   6,  37,  36
  6,   6,   7,  38,  37
  7,   7,   8,  39,  38
  8,   8,   9,  40,  39
  9,   9,  10,  41,  40
 10,  10,  11,  42,  41
 11,  11,  12,  43,  42
 12,  12,  13,  44,  43
 13,  13,  14,  45,  44
 14,  14,  15,  46,  45
 15,  15,  16,  47,  46
 16,  16,  17,  48,  47
 17,  17,  18,  49,  48
 18,  18,  19,  50,  49
 19,  19,  20,  51,  50
 20,  20,  21,  52,  51
** ... 880 like lines cut
*Nset, nset=Whole, generate
   1,  961,    1
*Elset, elset=Whole, generate
   1,  900,    1
** Section: Mat_Section
*Solid Section, elset=Whole, controls=EC-1, material=Material_Skin
1.,
*End Part
**  
**
** ASSEMBLY
**
*Assembly, name=Assembly
**  
*Instance, name=Part-1-1, part=Part-1
*End Instance
**  
*Nset, nset=Bottom_Nodes, instance=Part-1-1, generate
 931,  961,    1
*Nset, nset=Left_Nodes, instance=Part-1-1, generate
  31,  961,   31
*Nset, nset=Right_Nodes, instance=Part-1-1, generate
   1,  931,   31
*Nset, nset=Top_Nodes, instance=Part-1-1, generate
  1,  31,   1
*End Assembly
** 
** ELEMENT CONTROLS
** 
*Section Controls, name=EC-1, hourglass=ENHANCED
1., 1., 1.
** 
** MATERIALS
** 
*Material, name=Material_Skin
*Density
 1e-09,
*Depvar
11
*User Material, constants = 10
0.0024, 9.2,  1.16, 0.0, 1.36577,    0.66,    13.14,    0.04,
 0.5,     1.00
** ----------------------------------------------------------------
**
*USER OUTPUT VARIABLES
11, 
** STEP: Static Time
** 
*Step, name="Static Time", nlgeom=YES, inc=1000
*Static
0.001, 20., 1e-08, 0.1
** 
** BOUNDARY CONDITIONS
** 
** Name: Disp_Left Type: Displacement/Rotation
*Boundary
Left_Nodes, 1, 1, -15.
** Name: Disp_Top Type: Displacement/Rotation
*Boundary
Top_Nodes, 2, 2, 15.
** Name: Fix_Right Type: Symmetry/Antisymmetry/Encastre
*Boundary
Right_Nodes, YASYMM
** Name: Fix_Top Type: Symmetry/Antisymmetry/Encastre
*Boundary
Top_Nodes, ZSYMM
** Name: Fixed_Bottom Type: Symmetry/Antisymmetry/Encastre
*Boundary
Bottom_Nodes, XASYMM
** Name: Fixed_Left Type: Symmetry/Antisymmetry/Encastre
*Boundary
Left_Nodes, ZSYMM
** 
** OUTPUT REQUESTS
** 
*Restart, write, frequency=0
** 
** FIELD OUTPUT: F-Output-1
** 
*Output, field, variable=PRESELECT, time interval=0.05
*Element Output, directions=YES
UVARM1, UVARM2, UVARM3, UVARM4, UVARM5,
UVARM6, UVARM7, UVARM8, UVARM9, UVARM10, UVARM11
** 
** HISTORY OUTPUT: H-Output-1
** 
*Output, history, variable=PRESELECT
*End Step
