*Heading
** Job name: Test_Cyclic Model name: Model-1
** Generated by: Abaqus/CAE 2018
*Preprint, echo=NO, model=NO, history=NO, contact=NO
**
** PARTS
**
*Part, name=Body
*Node
      1,          15.,          15.
      2,        14.75,          15.
      3,         14.5,          15.
      4,        14.25,          15.
      5,          14.,          15.
      6,        13.75,          15.
      7,         13.5,          15.
      8,        13.25,          15.
      9,          13.,          15.
     10,        12.75,          15.
     11,         12.5,          15.
     12,        12.25,          15.
     13,          12.,          15.
     14,        11.75,          15.
     15,         11.5,          15.
     16,        11.25,          15.
     17,          11.,          15.
     18,        10.75,          15.
     19,         10.5,          15.
     20,        10.25,          15.
** ... 43661 like lines cut
*Element, type=CPS8R
    1,     1,     2,   123,   122, 14642, 14643, 14644, 14645
    2,     2,     3,   124,   123, 14646, 14647, 14648, 14643
    3,     3,     4,   125,   124, 14649, 14650, 14651, 14647
    4,     4,     5,   126,   125, 14652, 14653, 14654, 14650
    5,     5,     6,   127,   126, 14655, 14656, 14657, 14653
    6,     6,     7,   128,   127, 14658, 14659, 14660, 14656
    7,     7,     8,   129,   128, 14661, 14662, 14663, 14659
    8,     8,     9,   130,   129, 14664, 14665, 14666, 14662
    9,     9,    10,   131,   130, 14667, 14668, 14669, 14665
   10,    10,    11,   132,   131, 14670, 14671, 14672, 14668
   11,    11,    12,   133,   132, 14673, 14674, 14675, 14671
   12,    12,    13,   134,   133, 14676, 14677, 14678, 14674
   13,    13,    14,   135,   134, 14679, 14680, 14681, 14677
   14,    14,    15,   136,   135, 14682, 14683, 14684, 14680
   15,    15,    16,   137,   136, 14685, 14686, 14687, 14683
   16,    16,    17,   138,   137, 14688, 14689, 14690, 14686
   17,    17,    18,   139,   138, 14691, 14692, 14693, 14689
   18,    18,    19,   140,   139, 14694, 14695, 14696, 14692
   19,    19,    20,   141,   140, 14697, 14698, 14699, 14695
   20,    20,    21,   142,   141, 14700, 14701, 14702, 14698
** ... 14380 like lines cut
*Nset, nset=Body, generate
     1,  43681,      1
*Elset, elset=Body, generate
     1,  14400,      1
** Section: Body
*Solid Section, elset=Body, material=Skin
1.,
*End Part
**  
**
** ASSEMBLY
**
*Assembly, name=Assembly
**  
*Instance, name=Body-1, part=Body
*End Instance
**  
*Nset, nset=Bottom, instance=Body-1
 14521, 14522, 14523, 14524, 14525, 14526, 14527, 14528, 14529, 14530, 14531, 14532, 14533, 14534, 14535, 14536
 14537, 14538, 14539, 14540, 14541, 14542, 14543, 14544, 14545, 14546, 14547, 14548, 14549, 14550, 14551, 14552
 14553, 14554, 14555, 14556, 14557, 14558, 14559, 14560, 14561, 14562, 14563, 14564, 14565, 14566, 14567, 14568
 14569, 14570, 14571, 14572, 14573, 14574, 14575, 14576, 14577, 14578, 14579, 14580, 14581, 14582, 14583, 14584
 14585, 14586, 14587, 14588, 14589, 14590, 14591, 14592, 14593, 14594, 14595, 14596, 14597, 14598, 14599, 14600
 14601, 14602, 14603, 14604, 14605, 14606, 14607, 14608, 14609, 14610, 14611, 14612, 14613, 14614, 14615, 14616
 14617, 14618, 14619, 14620, 14621, 14622, 14623, 14624, 14625, 14626, 14627, 14628, 14629, 14630, 14631, 14632
 14633, 14634, 14635, 14636, 14637, 14638, 14639, 14640, 14641, 43442, 43445, 43447, 43449, 43451, 43453, 43455
 43457, 43459, 43461, 43463, 43465, 43467, 43469, 43471, 43473, 43475, 43477, 43479, 43481, 43483, 43485, 43487
 43489, 43491, 43493, 43495, 43497, 43499, 43501, 43503, 43505, 43507, 43509, 43511, 43513, 43515, 43517, 43519
 43521, 43523, 43525, 43527, 43529, 43531, 43533, 43535, 43537, 43539, 43541, 43543, 43545, 43547, 43549, 43551
 43553, 43555, 43557, 43559, 43561, 43563, 43565, 43567, 43569, 43571, 43573, 43575, 43577, 43579, 43581, 43583
 43585, 43587, 43589, 43591, 43593, 43595, 43597, 43599, 43601, 43603, 43605, 43607, 43609, 43611, 43613, 43615
 43617, 43619, 43621, 43623, 43625, 43627, 43629, 43631, 43633, 43635, 43637, 43639, 43641, 43643, 43645, 43647
 43649, 43651, 43653, 43655, 43657, 43659, 43661, 43663, 43665, 43667, 43669, 43671, 43673, 43675, 43677, 43679
 43681,
*Nset, nset=Left, instance=Body-1
   121,   242,   363,   484,   605,   726,   847,   968,  1089,  1210,  1331,  1452,  1573,  1694,  1815,  1936
  2057,  2178,  2299,  2420,  2541,  2662,  2783,  2904,  3025,  3146,  3267,  3388,  3509,  3630,  3751,  3872
  3993,  4114,  4235,  4356,  4477,  4598,  4719,  4840,  4961,  5082,  5203,  5324,  5445,  5566,  5687,  5808
  5929,  6050,  6171,  6292,  6413,  6534,  6655,  6776,  6897,  7018,  7139,  7260,  7381,  7502,  7623,  7744
  7865,  7986,  8107,  8228,  8349,  8470,  8591,  8712,  8833,  8954,  9075,  9196,  9317,  9438,  9559,  9680
  9801,  9922, 10043, 10164, 10285, 10406, 10527, 10648, 10769, 10890, 11011, 11132, 11253, 11374, 11495, 11616
 11737, 11858, 11979, 12100, 12221, 12342, 12463, 12584, 12705, 12826, 12947, 13068, 13189, 13310, 13431, 13552
 13673, 13794, 13915, 14036, 14157, 14278, 14399, 14520, 14641, 15001, 15242, 15483, 15724, 15965, 16206, 16447
 16688, 16929, 17170, 17411, 17652, 17893, 18134, 18375, 18616, 18857, 19098, 19339, 19580, 19821, 20062, 20303
 20544, 20785, 21026, 21267, 21508, 21749, 21990, 22231, 22472, 22713, 22954, 23195, 23436, 23677, 23918, 24159
 24400, 24641, 24882, 25123, 25364, 25605, 25846, 26087, 26328, 26569, 26810, 27051, 27292, 27533, 27774, 28015
 28256, 28497, 28738, 28979, 29220, 29461, 29702, 29943, 30184, 30425, 30666, 30907, 31148, 31389, 31630, 31871
 32112, 32353, 32594, 32835, 33076, 33317, 33558, 33799, 34040, 34281, 34522, 34763, 35004, 35245, 35486, 35727
 35968, 36209, 36450, 36691, 36932, 37173, 37414, 37655, 37896, 38137, 38378, 38619, 38860, 39101, 39342, 39583
 39824, 40065, 40306, 40547, 40788, 41029, 41270, 41511, 41752, 41993, 42234, 42475, 42716, 42957, 43198, 43439
 43680,
*Nset, nset=Right, instance=Body-1
     1,   122,   243,   364,   485,   606,   727,   848,   969,  1090,  1211,  1332,  1453,  1574,  1695,  1816
  1937,  2058,  2179,  2300,  2421,  2542,  2663,  2784,  2905,  3026,  3147,  3268,  3389,  3510,  3631,  3752
  3873,  3994,  4115,  4236,  4357,  4478,  4599,  4720,  4841,  4962,  5083,  5204,  5325,  5446,  5567,  5688
  5809,  5930,  6051,  6172,  6293,  6414,  6535,  6656,  6777,  6898,  7019,  7140,  7261,  7382,  7503,  7624
  7745,  7866,  7987,  8108,  8229,  8350,  8471,  8592,  8713,  8834,  8955,  9076,  9197,  9318,  9439,  9560
  9681,  9802,  9923, 10044, 10165, 10286, 10407, 10528, 10649, 10770, 10891, 11012, 11133, 11254, 11375, 11496
 11617, 11738, 11859, 11980, 12101, 12222, 12343, 12464, 12585, 12706, 12827, 12948, 13069, 13190, 13311, 13432
 13553, 13674, 13795, 13916, 14037, 14158, 14279, 14400, 14521, 14645, 15005, 15246, 15487, 15728, 15969, 16210
 16451, 16692, 16933, 17174, 17415, 17656, 17897, 18138, 18379, 18620, 18861, 19102, 19343, 19584, 19825, 20066
 20307, 20548, 20789, 21030, 21271, 21512, 21753, 21994, 22235, 22476, 22717, 22958, 23199, 23440, 23681, 23922
 24163, 24404, 24645, 24886, 25127, 25368, 25609, 25850, 26091, 26332, 26573, 26814, 27055, 27296, 27537, 27778
 28019, 28260, 28501, 28742, 28983, 29224, 29465, 29706, 29947, 30188, 30429, 30670, 30911, 31152, 31393, 31634
 31875, 32116, 32357, 32598, 32839, 33080, 33321, 33562, 33803, 34044, 34285, 34526, 34767, 35008, 35249, 35490
 35731, 35972, 36213, 36454, 36695, 36936, 37177, 37418, 37659, 37900, 38141, 38382, 38623, 38864, 39105, 39346
 39587, 39828, 40069, 40310, 40551, 40792, 41033, 41274, 41515, 41756, 41997, 42238, 42479, 42720, 42961, 43202
 43443,
*Nset, nset=Top, instance=Body-1
     1,     2,     3,     4,     5,     6,     7,     8,     9,    10,    11,    12,    13,    14,    15,    16
    17,    18,    19,    20,    21,    22,    23,    24,    25,    26,    27,    28,    29,    30,    31,    32
    33,    34,    35,    36,    37,    38,    39,    40,    41,    42,    43,    44,    45,    46,    47,    48
    49,    50,    51,    52,    53,    54,    55,    56,    57,    58,    59,    60,    61,    62,    63,    64
    65,    66,    67,    68,    69,    70,    71,    72,    73,    74,    75,    76,    77,    78,    79,    80
    81,    82,    83,    84,    85,    86,    87,    88,    89,    90,    91,    92,    93,    94,    95,    96
    97,    98,    99,   100,   101,   102,   103,   104,   105,   106,   107,   108,   109,   110,   111,   112
   113,   114,   115,   116,   117,   118,   119,   120,   121, 14642, 14646, 14649, 14652, 14655, 14658, 14661
 14664, 14667, 14670, 14673, 14676, 14679, 14682, 14685, 14688, 14691, 14694, 14697, 14700, 14703, 14706, 14709
 14712, 14715, 14718, 14721, 14724, 14727, 14730, 14733, 14736, 14739, 14742, 14745, 14748, 14751, 14754, 14757
 14760, 14763, 14766, 14769, 14772, 14775, 14778, 14781, 14784, 14787, 14790, 14793, 14796, 14799, 14802, 14805
 14808, 14811, 14814, 14817, 14820, 14823, 14826, 14829, 14832, 14835, 14838, 14841, 14844, 14847, 14850, 14853
 14856, 14859, 14862, 14865, 14868, 14871, 14874, 14877, 14880, 14883, 14886, 14889, 14892, 14895, 14898, 14901
 14904, 14907, 14910, 14913, 14916, 14919, 14922, 14925, 14928, 14931, 14934, 14937, 14940, 14943, 14946, 14949
 14952, 14955, 14958, 14961, 14964, 14967, 14970, 14973, 14976, 14979, 14982, 14985, 14988, 14991, 14994, 14997
 15000,
*End Assembly
*Amplitude, name=Cylic_Loading
             0.,              0.,             20.,             0.6,             40.,              0.,             60.,             0.8
            80.,              0.,            100.,              1.,            120.,              0.
** 
** MATERIALS
** 
*Material, name=Skin
*Density
 1e-09,
*Depvar
11
*User Material, constants = 10
 0.0024, 9.2,  1.16, 0.0, 1.36577,    0.66,    13.14,    0.04,
 0.5,     1.00
** ----------------------------------------------------------------
**
*USER OUTPUT VARIABLES
11, 
** STEP: Step-1
** 
*Step, name=Step-1, nlgeom=YES, inc=1000
*Static
0.1, 120., 1e-08, 1.
** 
** BOUNDARY CONDITIONS
** 
** Name: Bottom_Fixed Type: Symmetry/Antisymmetry/Encastre
*Boundary
Bottom, YSYMM
** Name: Left_Fixed Type: Symmetry/Antisymmetry/Encastre
*Boundary
Left, XSYMM
** Name: Right_Disp Type: Displacement/Rotation
*Boundary, amplitude=Cylic_Loading
Right, 1, 1, 15.
** Name: Top_Disp Type: Displacement/Rotation
*Boundary, amplitude=Cylic_Loading
Top, 2, 2, 15.
** 
** OUTPUT REQUESTS
** 
*Restart, write, frequency=0
** 
** FIELD OUTPUT: F-Output-1
** 
*Output, field, variable=PRESELECT, time interval=0.25
*Element Output, directions=YES
UVARM1, UVARM2, UVARM3, UVARM4, UVARM5,
UVARM6, UVARM7, UVARM8, UVARM9, UVARM10, UVARM11
** 
** HISTORY OUTPUT: H-Output-1
** 
*Output, history, variable=PRESELECT
*End Step
