*Heading
** Job name: 3D_UMAT Model name: Model-1
** Generated by: Abaqus/CAE 2018
*Preprint, echo=NO, model=NO, history=NO, contact=NO
**
** PARTS
**
*Part, name=Body
*Node
      1,         -15.,         -15.,           1.
      2,         -15.,         -14.,           1.
      3,         -15.,         -13.,           1.
      4,         -15.,         -12.,           1.
      5,         -15.,         -11.,           1.
      6,         -15.,         -10.,           1.
      7,         -15.,          -9.,           1.
      8,         -15.,          -8.,           1.
      9,         -15.,          -7.,           1.
     10,         -15.,          -6.,           1.
     11,         -15.,          -5.,           1.
     12,         -15.,          -4.,           1.
     13,         -15.,          -3.,           1.
     14,         -15.,          -2.,           1.
     15,         -15.,          -1.,           1.
     16,         -15.,           0.,           1.
     17,         -15.,           1.,           1.
     18,         -15.,           2.,           1.
     19,         -15.,           3.,           1.
     20,         -15.,           4.,           1.
** ... 1902 like lines cut
*Element, type=C3D8RH
  1,   63,   64,   95,   94,    1,    2,   33,   32
  2,   64,   65,   96,   95,    2,    3,   34,   33
  3,   65,   66,   97,   96,    3,    4,   35,   34
  4,   66,   67,   98,   97,    4,    5,   36,   35
  5,   67,   68,   99,   98,    5,    6,   37,   36
  6,   68,   69,  100,   99,    6,    7,   38,   37
  7,   69,   70,  101,  100,    7,    8,   39,   38
  8,   70,   71,  102,  101,    8,    9,   40,   39
  9,   71,   72,  103,  102,    9,   10,   41,   40
 10,   72,   73,  104,  103,   10,   11,   42,   41
 11,   73,   74,  105,  104,   11,   12,   43,   42
 12,   74,   75,  106,  105,   12,   13,   44,   43
 13,   75,   76,  107,  106,   13,   14,   45,   44
 14,   76,   77,  108,  107,   14,   15,   46,   45
 15,   77,   78,  109,  108,   15,   16,   47,   46
 16,   78,   79,  110,  109,   16,   17,   48,   47
 17,   79,   80,  111,  110,   17,   18,   49,   48
 18,   80,   81,  112,  111,   18,   19,   50,   49
 19,   81,   82,  113,  112,   19,   20,   51,   50
 20,   82,   83,  114,  113,   20,   21,   52,   51
** ... 880 like lines cut
*Nset, nset=Body, generate
    1,  1922,     1
*Elset, elset=Body, generate
   1,  900,    1
*Elset, elset=_Whole_body_S1, internal, generate
 871,  900,    1
*Elset, elset=_Whole_body_S6, internal, generate
   1,  871,   30
*Elset, elset=_Whole_body_S2, internal, generate
  1,  30,   1
*Elset, elset=_Whole_body_S4, internal, generate
  30,  900,   30
*Elset, elset=_Whole_body_S3, internal, generate
   1,  900,    1
*Elset, elset=_Whole_body_S5, internal, generate
   1,  900,    1
*Surface, type=ELEMENT, name=Whole_body
_Whole_body_S1, S1
_Whole_body_S6, S6
_Whole_body_S2, S2
_Whole_body_S4, S4
_Whole_body_S3, S3
_Whole_body_S5, S5
** Section: Body
*Solid Section, elset=Body, controls=EC-1, material=Material_Skin
1.,
*End Part
**  
**
** ASSEMBLY
**
*Assembly, name=Assembly
**  
*Instance, name=Body-1, part=Body
*End Instance
**  
*Nset, nset=Bottom, instance=Body-1, generate
    1,  1892,    31
*Nset, nset=Left, instance=Body-1, generate
  1,  62,   1
*Nset, nset=Right, instance=Body-1, generate
 1861,  1922,     1
*Nset, nset=Set-10, instance=Body-1
   32,   33,   34,   35,   36,   37,   38,   39,   40,   41,   42,   43,   44,   45,   46,   47
   48,   49,   50,   51,   52,   53,   54,   55,   56,   57,   58,   59,   60,   61,   62,  124
  186,  248,  310,  372,  434,  496,  558,  620,  682,  744,  806,  868,  930,  992, 1054, 1116
 1178, 1240, 1302, 1364, 1426, 1488, 1550, 1612, 1674, 1736, 1798, 1860, 1922
*Elset, elset=Set-10, instance=Body-1
   1,   2,   3,   4,   5,   6,   7,   8,   9,  10,  11,  12,  13,  14,  15,  16
  17,  18,  19,  20,  21,  22,  23,  24,  25,  26,  27,  28,  29,  30,  60,  90
 120, 150, 180, 210, 240, 270, 300, 330, 360, 390, 420, 450, 480, 510, 540, 570
 600, 630, 660, 690, 720, 750, 780, 810, 840, 870, 900
*Nset, nset=Top, instance=Body-1, generate
   31,  1922,    31
*End Assembly
** 
** ELEMENT CONTROLS
** 
*Section Controls, name=EC-1, hourglass=ENHANCED
1., 1., 1.
** 
** MATERIALS
** 
*Material, name=Material_Skin
*Density
 1e-09,
*Depvar
11
*User Material, constants = 10
0.0024, 9.2,  1.16, 0.0, 1.36577,    0.66,    13.14,    0.04,
 0.5,     1.00
** ----------------------------------------------------------------
**
*USER OUTPUT VARIABLES
11, 
** STEP: Step-1
** 
*Step, name=Step-1, nlgeom=YES, inc=10000
*Static
0.001, 20., 1e-08, 1
** 
** BOUNDARY CONDITIONS
** 
** Name: Fixed_Bottom Type: Symmetry/Antisymmetry/Encastre
*Boundary
Bottom, YSYMM
** Name: Fixed_Right Type: Symmetry/Antisymmetry/Encastre
*Boundary
Right, XSYMM
** Name: Fixed_Z Type: Symmetry/Antisymmetry/Encastre
*Boundary
Set-10, ZSYMM
** Name: Left_Disp Type: Displacement/Rotation
*Boundary
Left, 1, 1, -15.
** Name: Top_Disp Type: Displacement/Rotation
*Boundary
Top, 2, 2, 15.
** 
** OUTPUT REQUESTS
** 
*Restart, write, frequency=0
** 
** FIELD OUTPUT: F-Output-1
** 
*Output, field, variable=PRESELECT, number interval=200
*Element Output, directions=YES
UVARM1, UVARM2, UVARM3, UVARM4, UVARM5,
UVARM6, UVARM7, UVARM8, UVARM9, UVARM10, UVARM11
** 
** HISTORY OUTPUT: H-Output-1
** 
*Output, history, variable=PRESELECT
*End Step
