*Heading
** Job name: Z_INPUT Model name: Model-1
** Generated by: Abaqus/CAE 2018.HF2
*Preprint, echo=NO, model=NO, history=NO, contact=NO
**
** PARTS
**
*Part, name=blood_clot
*Node
      1,           7.,   5.00099993
      2,         -20.,   5.00099993
      3,         -20.,   4.99900007
      4,           7.,   4.99900007
      5,         -20.,           6.
      6,          20.,           6.
      7,          20.,          10.
      8,         -20.,          10.
      9,         -20.,         5.25
     10,          20.,         5.25
     11,          20.,   5.00099993
     12,         -20.,         4.75
     13,          20.,         4.75
     14,          20.,   4.99900007
     15,          20.,           4.
     16,         -20.,           4.
     17,         -20.,           0.
     18,          20.,           0.
     19,   6.94999981,   5.00099993
     20,    6.9000001,   5.00099993
** ... 46438 like lines cut
*Element, type=COH2D4
  1,    1,   19, 1096,    4
  2,   19,   20, 1095, 1096
  3,   20,   21, 1094, 1095
  4,   21,   22, 1093, 1094
  5,   22,   23, 1092, 1093
  6,   23,   24, 1091, 1092
  7,   24,   25, 1090, 1091
  8,   25,   26, 1089, 1090
  9,   26,   27, 1088, 1089
 10,   27,   28, 1087, 1088
 11,   28,   29, 1086, 1087
 12,   29,   30, 1085, 1086
 13,   30,   31, 1084, 1085
 14,   31,   32, 1083, 1084
 15,   32,   33, 1082, 1083
 16,   33,   34, 1081, 1082
 17,   34,   35, 1080, 1081
 18,   35,   36, 1079, 1080
 19,   36,   37, 1078, 1079
 20,   37,   38, 1077, 1078
** ... 520 like lines cut
*Element, type=CPS4R
 541,     5,  1097,  6509,  2708
 542,  1097,  1098,  6510,  6509
 543,  1098,  1099,  6511,  6510
 544,  1099,  1100,  6512,  6511
 545,  1100,  1101,  6513,  6512
 546,  1101,  1102,  6514,  6513
 547,  1102,  1103,  6515,  6514
 548,  1103,  1104,  6516,  6515
 549,  1104,  1105,  6517,  6516
 550,  1105,  1106,  6518,  6517
 551,  1106,  1107,  6519,  6518
 552,  1107,  1108,  6520,  6519
 553,  1108,  1109,  6521,  6520
 554,  1109,  1110,  6522,  6521
 555,  1110,  1111,  6523,  6522
 556,  1111,  1112,  6524,  6523
 557,  1112,  1113,  6525,  6524
 558,  1113,  1114,  6526,  6525
 559,  1114,  1115,  6527,  6526
 560,  1115,  1116,  6528,  6527
** ... 44780 like lines cut
*Nset, nset=blood_clot_upper
     1,     2,     5,     6,     7,     8,     9,    10,    11,    19,    20,    21,    22,    23,    24,    25
    26,    27,    28,    29,    30,    31,    32,    33,    34,    35,    36,    37,    38,    39,    40,    41
    42,    43,    44,    45,    46,    47,    48,    49,    50,    51,    52,    53,    54,    55,    56,    57
    58,    59,    60,    61,    62,    63,    64,    65,    66,    67,    68,    69,    70,    71,    72,    73
    74,    75,    76,    77,    78,    79,    80,    81,    82,    83,    84,    85,    86,    87,    88,    89
    90,    91,    92,    93,    94,    95,    96,    97,    98,    99,   100,   101,   102,   103,   104,   105
   106,   107,   108,   109,   110,   111,   112,   113,   114,   115,   116,   117,   118,   119,   120,   121
   122,   123,   124,   125,   126,   127,   128,   129,   130,   131,   132,   133,   134,   135,   136,   137
   138,   139,   140,   141,   142,   143,   144,   145,   146,   147,   148,   149,   150,   151,   152,   153
   154,   155,   156,   157,   158,   159,   160,   161,   162,   163,   164,   165,   166,   167,   168,   169
   170,   171,   172,   173,   174,   175,   176,   177,   178,   179,   180,   181,   182,   183,   184,   185
   186,   187,   188,   189,   190,   191,   192,   193,   194,   195,   196,   197,   198,   199,   200,   201
   202,   203,   204,   205,   206,   207,   208,   209,   210,   211,   212,   213,   214,   215,   216,   217
   218,   219,   220,   221,   222,   223,   224,   225,   226,   227,   228,   229,   230,   231,   232,   233
   234,   235,   236,   237,   238,   239,   240,   241,   242,   243,   244,   245,   246,   247,   248,   249
   250,   251,   252,   253,   254,   255,   256,   257,   258,   259,   260,   261,   262,   263,   264,   265
   266,   267,   268,   269,   270,   271,   272,   273,   274,   275,   276,   277,   278,   279,   280,   281
   282,   283,   284,   285,   286,   287,   288,   289,   290,   291,   292,   293,   294,   295,   296,   297
   298,   299,   300,   301,   302,   303,   304,   305,   306,   307,   308,   309,   310,   311,   312,   313
   314,   315,   316,   317,   318,   319,   320,   321,   322,   323,   324,   325,   326,   327,   328,   329
** ... 1432 like lines cut
*Elset, elset=blood_clot_upper, generate
   541,  22940,      1
*Nset, nset=blood_clot_lower
     3,     4,    12,    13,    14,    15,    16,    17,    18,   558,   559,   560,   561,   562,   563,   564
   565,   566,   567,   568,   569,   570,   571,   572,   573,   574,   575,   576,   577,   578,   579,   580
   581,   582,   583,   584,   585,   586,   587,   588,   589,   590,   591,   592,   593,   594,   595,   596
   597,   598,   599,   600,   601,   602,   603,   604,   605,   606,   607,   608,   609,   610,   611,   612
   613,   614,   615,   616,   617,   618,   619,   620,   621,   622,   623,   624,   625,   626,   627,   628
   629,   630,   631,   632,   633,   634,   635,   636,   637,   638,   639,   640,   641,   642,   643,   644
   645,   646,   647,   648,   649,   650,   651,   652,   653,   654,   655,   656,   657,   658,   659,   660
   661,   662,   663,   664,   665,   666,   667,   668,   669,   670,   671,   672,   673,   674,   675,   676
   677,   678,   679,   680,   681,   682,   683,   684,   685,   686,   687,   688,   689,   690,   691,   692
   693,   694,   695,   696,   697,   698,   699,   700,   701,   702,   703,   704,   705,   706,   707,   708
   709,   710,   711,   712,   713,   714,   715,   716,   717,   718,   719,   720,   721,   722,   723,   724
   725,   726,   727,   728,   729,   730,   731,   732,   733,   734,   735,   736,   737,   738,   739,   740
   741,   742,   743,   744,   745,   746,   747,   748,   749,   750,   751,   752,   753,   754,   755,   756
   757,   758,   759,   760,   761,   762,   763,   764,   765,   766,   767,   768,   769,   770,   771,   772
   773,   774,   775,   776,   777,   778,   779,   780,   781,   782,   783,   784,   785,   786,   787,   788
   789,   790,   791,   792,   793,   794,   795,   796,   797,   798,   799,   800,   801,   802,   803,   804
   805,   806,   807,   808,   809,   810,   811,   812,   813,   814,   815,   816,   817,   818,   819,   820
   821,   822,   823,   824,   825,   826,   827,   828,   829,   830,   831,   832,   833,   834,   835,   836
   837,   838,   839,   840,   841,   842,   843,   844,   845,   846,   847,   848,   849,   850,   851,   852
   853,   854,   855,   856,   857,   858,   859,   860,   861,   862,   863,   864,   865,   866,   867,   868
** ... 1432 like lines cut
*Elset, elset=blood_clot_lower, generate
 22941,  45340,      1
*Nset, nset=cohesive
    1,    2,    3,    4,   19,   20,   21,   22,   23,   24,   25,   26,   27,   28,   29,   30
   31,   32,   33,   34,   35,   36,   37,   38,   39,   40,   41,   42,   43,   44,   45,   46
   47,   48,   49,   50,   51,   52,   53,   54,   55,   56,   57,   58,   59,   60,   61,   62
   63,   64,   65,   66,   67,   68,   69,   70,   71,   72,   73,   74,   75,   76,   77,   78
   79,   80,   81,   82,   83,   84,   85,   86,   87,   88,   89,   90,   91,   92,   93,   94
   95,   96,   97,   98,   99,  100,  101,  102,  103,  104,  105,  106,  107,  108,  109,  110
  111,  112,  113,  114,  115,  116,  117,  118,  119,  120,  121,  122,  123,  124,  125,  126
  127,  128,  129,  130,  131,  132,  133,  134,  135,  136,  137,  138,  139,  140,  141,  142
  143,  144,  145,  146,  147,  148,  149,  150,  151,  152,  153,  154,  155,  156,  157,  158
  159,  160,  161,  162,  163,  164,  165,  166,  167,  168,  169,  170,  171,  172,  173,  174
  175,  176,  177,  178,  179,  180,  181,  182,  183,  184,  185,  186,  187,  188,  189,  190
  191,  192,  193,  194,  195,  196,  197,  198,  199,  200,  201,  202,  203,  204,  205,  206
  207,  208,  209,  210,  211,  212,  213,  214,  215,  216,  217,  218,  219,  220,  221,  222
  223,  224,  225,  226,  227,  228,  229,  230,  231,  232,  233,  234,  235,  236,  237,  238
  239,  240,  241,  242,  243,  244,  245,  246,  247,  248,  249,  250,  251,  252,  253,  254
  255,  256,  257,  258,  259,  260,  261,  262,  263,  264,  265,  266,  267,  268,  269,  270
  271,  272,  273,  274,  275,  276,  277,  278,  279,  280,  281,  282,  283,  284,  285,  286
  287,  288,  289,  290,  291,  292,  293,  294,  295,  296,  297,  298,  299,  300,  301,  302
  303,  304,  305,  306,  307,  308,  309,  310,  311,  312,  313,  314,  315,  316,  317,  318
  319,  320,  321,  322,  323,  324,  325,  326,  327,  328,  329,  330,  331,  332,  333,  334
** ... 48 like lines cut
*Elset, elset=cohesive, generate
   1,  540,    1
*Nset, nset=top
    7,    8, 1903, 1904, 1905, 1906, 1907, 1908, 1909, 1910, 1911, 1912, 1913, 1914, 1915, 1916
 1917, 1918, 1919, 1920, 1921, 1922, 1923, 1924, 1925, 1926, 1927, 1928, 1929, 1930, 1931, 1932
 1933, 1934, 1935, 1936, 1937, 1938, 1939, 1940, 1941, 1942, 1943, 1944, 1945, 1946, 1947, 1948
 1949, 1950, 1951, 1952, 1953, 1954, 1955, 1956, 1957, 1958, 1959, 1960, 1961, 1962, 1963, 1964
 1965, 1966, 1967, 1968, 1969, 1970, 1971, 1972, 1973, 1974, 1975, 1976, 1977, 1978, 1979, 1980
 1981, 1982, 1983, 1984, 1985, 1986, 1987, 1988, 1989, 1990, 1991, 1992, 1993, 1994, 1995, 1996
 1997, 1998, 1999, 2000, 2001, 2002, 2003, 2004, 2005, 2006, 2007, 2008, 2009, 2010, 2011, 2012
 2013, 2014, 2015, 2016, 2017, 2018, 2019, 2020, 2021, 2022, 2023, 2024, 2025, 2026, 2027, 2028
 2029, 2030, 2031, 2032, 2033, 2034, 2035, 2036, 2037, 2038, 2039, 2040, 2041, 2042, 2043, 2044
 2045, 2046, 2047, 2048, 2049, 2050, 2051, 2052, 2053, 2054, 2055, 2056, 2057, 2058, 2059, 2060
 2061, 2062, 2063, 2064, 2065, 2066, 2067, 2068, 2069, 2070, 2071, 2072, 2073, 2074, 2075, 2076
 2077, 2078, 2079, 2080, 2081, 2082, 2083, 2084, 2085, 2086, 2087, 2088, 2089, 2090, 2091, 2092
 2093, 2094, 2095, 2096, 2097, 2098, 2099, 2100, 2101, 2102, 2103, 2104, 2105, 2106, 2107, 2108
 2109, 2110, 2111, 2112, 2113, 2114, 2115, 2116, 2117, 2118, 2119, 2120, 2121, 2122, 2123, 2124
 2125, 2126, 2127, 2128, 2129, 2130, 2131, 2132, 2133, 2134, 2135, 2136, 2137, 2138, 2139, 2140
 2141, 2142, 2143, 2144, 2145, 2146, 2147, 2148, 2149, 2150, 2151, 2152, 2153, 2154, 2155, 2156
 2157, 2158, 2159, 2160, 2161, 2162, 2163, 2164, 2165, 2166, 2167, 2168, 2169, 2170, 2171, 2172
 2173, 2174, 2175, 2176, 2177, 2178, 2179, 2180, 2181, 2182, 2183, 2184, 2185, 2186, 2187, 2188
 2189, 2190, 2191, 2192, 2193, 2194, 2195, 2196, 2197, 2198, 2199, 2200, 2201, 2202, 2203, 2204
 2205, 2206, 2207, 2208, 2209, 2210, 2211, 2212, 2213, 2214, 2215, 2216, 2217, 2218, 2219, 2220
** ... 31 like lines cut
*Elset, elset=top, generate
   541,  22940,      1
*Nset, nset=bot
   17,   18, 5675, 5676, 5677, 5678, 5679, 5680, 5681, 5682, 5683, 5684, 5685, 5686, 5687, 5688
 5689, 5690, 5691, 5692, 5693, 5694, 5695, 5696, 5697, 5698, 5699, 5700, 5701, 5702, 5703, 5704
 5705, 5706, 5707, 5708, 5709, 5710, 5711, 5712, 5713, 5714, 5715, 5716, 5717, 5718, 5719, 5720
 5721, 5722, 5723, 5724, 5725, 5726, 5727, 5728, 5729, 5730, 5731, 5732, 5733, 5734, 5735, 5736
 5737, 5738, 5739, 5740, 5741, 5742, 5743, 5744, 5745, 5746, 5747, 5748, 5749, 5750, 5751, 5752
 5753, 5754, 5755, 5756, 5757, 5758, 5759, 5760, 5761, 5762, 5763, 5764, 5765, 5766, 5767, 5768
 5769, 5770, 5771, 5772, 5773, 5774, 5775, 5776, 5777, 5778, 5779, 5780, 5781, 5782, 5783, 5784
 5785, 5786, 5787, 5788, 5789, 5790, 5791, 5792, 5793, 5794, 5795, 5796, 5797, 5798, 5799, 5800
 5801, 5802, 5803, 5804, 5805, 5806, 5807, 5808, 5809, 5810, 5811, 5812, 5813, 5814, 5815, 5816
 5817, 5818, 5819, 5820, 5821, 5822, 5823, 5824, 5825, 5826, 5827, 5828, 5829, 5830, 5831, 5832
 5833, 5834, 5835, 5836, 5837, 5838, 5839, 5840, 5841, 5842, 5843, 5844, 5845, 5846, 5847, 5848
 5849, 5850, 5851, 5852, 5853, 5854, 5855, 5856, 5857, 5858, 5859, 5860, 5861, 5862, 5863, 5864
 5865, 5866, 5867, 5868, 5869, 5870, 5871, 5872, 5873, 5874, 5875, 5876, 5877, 5878, 5879, 5880
 5881, 5882, 5883, 5884, 5885, 5886, 5887, 5888, 5889, 5890, 5891, 5892, 5893, 5894, 5895, 5896
 5897, 5898, 5899, 5900, 5901, 5902, 5903, 5904, 5905, 5906, 5907, 5908, 5909, 5910, 5911, 5912
 5913, 5914, 5915, 5916, 5917, 5918, 5919, 5920, 5921, 5922, 5923, 5924, 5925, 5926, 5927, 5928
 5929, 5930, 5931, 5932, 5933, 5934, 5935, 5936, 5937, 5938, 5939, 5940, 5941, 5942, 5943, 5944
 5945, 5946, 5947, 5948, 5949, 5950, 5951, 5952, 5953, 5954, 5955, 5956, 5957, 5958, 5959, 5960
 5961, 5962, 5963, 5964, 5965, 5966, 5967, 5968, 5969, 5970, 5971, 5972, 5973, 5974, 5975, 5976
 5977, 5978, 5979, 5980, 5981, 5982, 5983, 5984, 5985, 5986, 5987, 5988, 5989, 5990, 5991, 5992
** ... 31 like lines cut
*Elset, elset=bot, generate
 22941,  45340,      1
** Section: blood_clot
*Solid Section, elset=blood_clot_upper, controls=EC-1, material=blood_clot
, 3.
** Section: blood_clot
*Solid Section, elset=blood_clot_lower, controls=EC-1, material=blood_clot
, 3.
** Section: cohesive
*Cohesive Section, elset=cohesive, controls=EC-1, material=cohesive, response=TRACTION SEPARATION
, 3.
*End Part
**
*Part, name=point
*Node
      1,           0.,          15.,           0.
*Nset, nset=point-RefPt_, internal
1, 
*End Part
**
**  
** ASSEMBLY
**
*Assembly, name=Assembly
**  
*Instance, name=blood_clot-1, part=blood_clot
*End Instance
**  
*Instance, name=point-1, part=point
*End Instance
**
*Nset, nset=RF_2, instance=point-1
 1,
*Nset, nset=TOP_RF, instance=blood_clot-1
    7,    8, 1903, 1904, 1905, 1906, 1907, 1908, 1909, 1910, 1911, 1912, 1913, 1914, 1915, 1916
 1917, 1918, 1919, 1920, 1921, 1922, 1923, 1924, 1925, 1926, 1927, 1928, 1929, 1930, 1931, 1932
 1933, 1934, 1935, 1936, 1937, 1938, 1939, 1940, 1941, 1942, 1943, 1944, 1945, 1946, 1947, 1948
 1949, 1950, 1951, 1952, 1953, 1954, 1955, 1956, 1957, 1958, 1959, 1960, 1961, 1962, 1963, 1964
 1965, 1966, 1967, 1968, 1969, 1970, 1971, 1972, 1973, 1974, 1975, 1976, 1977, 1978, 1979, 1980
 1981, 1982, 1983, 1984, 1985, 1986, 1987, 1988, 1989, 1990, 1991, 1992, 1993, 1994, 1995, 1996
 1997, 1998, 1999, 2000, 2001, 2002, 2003, 2004, 2005, 2006, 2007, 2008, 2009, 2010, 2011, 2012
 2013, 2014, 2015, 2016, 2017, 2018, 2019, 2020, 2021, 2022, 2023, 2024, 2025, 2026, 2027, 2028
 2029, 2030, 2031, 2032, 2033, 2034, 2035, 2036, 2037, 2038, 2039, 2040, 2041, 2042, 2043, 2044
 2045, 2046, 2047, 2048, 2049, 2050, 2051, 2052, 2053, 2054, 2055, 2056, 2057, 2058, 2059, 2060
 2061, 2062, 2063, 2064, 2065, 2066, 2067, 2068, 2069, 2070, 2071, 2072, 2073, 2074, 2075, 2076
 2077, 2078, 2079, 2080, 2081, 2082, 2083, 2084, 2085, 2086, 2087, 2088, 2089, 2090, 2091, 2092
 2093, 2094, 2095, 2096, 2097, 2098, 2099, 2100, 2101, 2102, 2103, 2104, 2105, 2106, 2107, 2108
 2109, 2110, 2111, 2112, 2113, 2114, 2115, 2116, 2117, 2118, 2119, 2120, 2121, 2122, 2123, 2124
 2125, 2126, 2127, 2128, 2129, 2130, 2131, 2132, 2133, 2134, 2135, 2136, 2137, 2138, 2139, 2140
 2141, 2142, 2143, 2144, 2145, 2146, 2147, 2148, 2149, 2150, 2151, 2152, 2153, 2154, 2155, 2156
 2157, 2158, 2159, 2160, 2161, 2162, 2163, 2164, 2165, 2166, 2167, 2168, 2169, 2170, 2171, 2172
 2173, 2174, 2175, 2176, 2177, 2178, 2179, 2180, 2181, 2182, 2183, 2184, 2185, 2186, 2187, 2188
 2189, 2190, 2191, 2192, 2193, 2194, 2195, 2196, 2197, 2198, 2199, 2200, 2201, 2202, 2203, 2204
 2205, 2206, 2207, 2208, 2209, 2210, 2211, 2212, 2213, 2214, 2215, 2216, 2217, 2218, 2219, 2220
** ... 31 like lines cut
*Surface, type=NODE, name=TOP_RF_CNS_, internal
TOP_RF, 1.
** Constraint: Constraint-1
*MPC
TIE, TOP_RF, RF_2
*End Assembly
** 
** ELEMENT CONTROLS
** 
*Section Controls, name=EC-1, hourglass=ENHANCED, second order accuracy=YES
1., 1., 1.
*Section Controls, name=EC-2, ELEMENT DELETION=YES
1., 1., 1.
** 
** MATERIALS
**
*Material, name=cohesive
*Damage Initiation, criterion=QUADS
 0.0231, 0.0231, 0.0231
*Damage Evolution, type=DISPLACEMENT
 0.973,
*Density
 1e-9,
*Elastic, type=TRACTION
 3, 3, 3
*Material, name=blood_clot
*Density
 1e-09,
*Depvar
11
*User Material, constants = 10
0.0024, 9.2,  1.16,  0, 1.36577,    0.98,    13.14,    0.04,
 0.2,     1.00
** ----------------------------------------------------------------
**
*USER OUTPUT VARIABLES
11,
** STEP: pure-shear
** 
*Step, name=pure-shear, nlgeom=YES, inc=100000
*Static, stabilize=0.0002, allsdtol=0.05, continue=NO
0.01, 20., 1e-20, 0.1
**
** BOUNDARY CONDITIONS
**
** Name: fix_point Type: Displacement/Rotation
*Boundary
RF_2, 1, 1 
** Name: bot-u Type: Displacement/Rotation
*Boundary
blood_clot-1.bot, 1, 1
** Name: bot-v Type: Velocity/Angular velocity
*Boundary, type=VELOCITY
blood_clot-1.bot, 2, 2, -0.20
** Name: vel_point Type: Velocity/Angular velocity
*Boundary, type=VELOCITY
RF_2, 2, 2, 0.20
**
** CONTROLS
** 
*Controls, reset
*Controls, parameters=time incrementation
, , , , , , , 25, , , 
** OUTPUT REQUESTS
**
*Restart, write, number interval=1, time marks=NO
** 
** FIELD OUTPUT: F-Output-1
** 
*Output, field, variable=PRESELECT, time interval=0.05
*Node Output
A, RF, U, V
*Element Output, directions=YES
DMENER, E, EDMDDEN, ELDMD, LE, NE, PE, S, SDEG, STATUS,
UVARM1, UVARM2, UVARM3, UVARM4, UVARM5,
UVARM6, UVARM7, UVARM8, UVARM9, UVARM10, UVARM11
**
** HISTORY OUTPUT: H-Output-1
** 
*Output, history, time interval=0.05
*Node Output, nset=RF_2
RF2, U2
**
**
** HISTORY OUTPUT: H-Output-3
** 
*Output, history
*Energy Output
ALLAE, ALLCD, ALLDMD, ALLSE, ALLVD, ALLWK, ETOTAL
*End Step
